* +++++++++++++++++++++++++++++++++++++++++++++++++++++++++ *
* CDL Netlist:                                              *
*                                                           *
* Cell Name  : AND                                          *
* Netlisted  : Tue Apr  8 14:25:42 2025                     *
* Pegasus Version: 22.20-p009 Wed Jan 18 17:06:09 PST 2023  *
* +++++++++++++++++++++++++++++++++++++++++++++++++++++++++ *
*.LDD
*.DEVTMPLT 0 M(g45n1svt) _nmos1v ndiff_conn(D) poly_conn(G) ndiff_conn(S) psubstrate(B)
*.DEVTMPLT 1 M(g45p1svt) _pmos1v pdiff_conn(D) poly_conn(G) pdiff_conn(S) nwell_conn(B)

* +++++++++++++++++++++++++++++++++++++++++++++++++++++++++ *
* Sub cell: M1_PO_CDNS_1                                    *
* +++++++++++++++++++++++++++++++++++++++++++++++++++++++++ *
.subckt M1_PO_CDNS_1 1
** N=1 EP=1 FDC=0
.ends M1_PO_CDNS_1

* +++++++++++++++++++++++++++++++++++++++++++++++++++++++++ *
* Sub cell: M2_M1_CDNS_2                                    *
* +++++++++++++++++++++++++++++++++++++++++++++++++++++++++ *
.subckt M2_M1_CDNS_2 1
** N=1 EP=1 FDC=0
.ends M2_M1_CDNS_2

* +++++++++++++++++++++++++++++++++++++++++++++++++++++++++ *
* Sub cell: M2_M1_CDNS_3                                    *
* +++++++++++++++++++++++++++++++++++++++++++++++++++++++++ *
.subckt M2_M1_CDNS_3 1
** N=1 EP=1 FDC=0
.ends M2_M1_CDNS_3

* +++++++++++++++++++++++++++++++++++++++++++++++++++++++++ *
* Sub cell: pmos1v_CDNS_6                                   *
* +++++++++++++++++++++++++++++++++++++++++++++++++++++++++ *
.subckt pmos1v_CDNS_6 S_source_0 D_drain_1 3 4
*.DEVICECLIMB
** N=4 EP=4 FDC=0
.ends pmos1v_CDNS_6

* +++++++++++++++++++++++++++++++++++++++++++++++++++++++++ *
* Sub cell: nmos1v_CDNS_7                                   *
* +++++++++++++++++++++++++++++++++++++++++++++++++++++++++ *
.subckt nmos1v_CDNS_7 S_source_0 2 D_drain_1 4
*.DEVICECLIMB
** N=4 EP=4 FDC=0
.ends nmos1v_CDNS_7

* +++++++++++++++++++++++++++++++++++++++++++++++++++++++++ *
* Sub cell: nmos1v_CDNS_8                                   *
* +++++++++++++++++++++++++++++++++++++++++++++++++++++++++ *
.subckt nmos1v_CDNS_8 S_source_0 D_drain_1 3
** N=3 EP=3 FDC=1
M0 D_drain_1 3 S_source_0 S_source_0 g45n1svt w=1.2e-07 l=4.5e-08 ad=1.68e-14 as=1.68e-14 pd=5.2e-07 ps=5.2e-07 sa=1.4e-07 sb=1.4e-07 sca=10.0405 scb=0.00715176 scc=5.42465e-05 fw=1.2e-07 $X=0 $Y=0 $dt=0
.ends nmos1v_CDNS_8

* +++++++++++++++++++++++++++++++++++++++++++++++++++++++++ *
* Sub cell: AND                                             *
* +++++++++++++++++++++++++++++++++++++++++++++++++++++++++ *
.subckt AND A B GND VDD Y
** N=7 EP=5 FDC=6
X0 A M1_PO_CDNS_1 $T=-2060 2460 0 0 $X=-2160 $Y=2340
X1 B M1_PO_CDNS_1 $T=-790 1720 0 0 $X=-890 $Y=1600
X2 3 M1_PO_CDNS_1 $T=460 2090 0 0 $X=360 $Y=1970
X3 GND M2_M1_CDNS_2 $T=-2270 1160 0 0 $X=-2350 $Y=890
X4 VDD M2_M1_CDNS_2 $T=-2270 3010 0 0 $X=-2350 $Y=2740
X5 3 M2_M1_CDNS_2 $T=-1860 3010 0 0 $X=-1940 $Y=2740
X6 VDD M2_M1_CDNS_2 $T=-990 3010 0 0 $X=-1070 $Y=2740
X7 3 M2_M1_CDNS_2 $T=-580 1170 0 0 $X=-660 $Y=900
X8 3 M2_M1_CDNS_2 $T=-580 3010 0 0 $X=-660 $Y=2740
X9 GND M2_M1_CDNS_2 $T=260 1140 0 0 $X=180 $Y=870
X10 VDD M2_M1_CDNS_2 $T=260 3010 0 0 $X=180 $Y=2740
X11 Y M2_M1_CDNS_2 $T=670 1140 0 0 $X=590 $Y=870
X12 Y M2_M1_CDNS_2 $T=670 3010 0 0 $X=590 $Y=2740
X13 GND M2_M1_CDNS_3 $T=-2270 400 0 0 $X=-2350 $Y=270
X14 VDD M2_M1_CDNS_3 $T=-2270 3710 0 0 $X=-2350 $Y=3580
X15 3 M2_M1_CDNS_3 $T=-1860 2090 0 0 $X=-1940 $Y=1960
X16 VDD M2_M1_CDNS_3 $T=-990 3710 0 0 $X=-1070 $Y=3580
X17 3 M2_M1_CDNS_3 $T=-580 2090 0 0 $X=-660 $Y=1960
X18 GND M2_M1_CDNS_3 $T=260 450 0 0 $X=180 $Y=320
X19 VDD M2_M1_CDNS_3 $T=260 3710 0 0 $X=180 $Y=3580
X20 Y M2_M1_CDNS_3 $T=670 1690 0 0 $X=590 $Y=1560
X21 VDD 3 A GND pmos1v_CDNS_6 $T=-2110 2770 0 0 $X=-2530 $Y=2570
X22 VDD 3 B GND pmos1v_CDNS_6 $T=-830 2770 0 0 $X=-1250 $Y=2570
X23 VDD Y 3 GND pmos1v_CDNS_6 $T=420 2770 0 0 $X=0 $Y=2570
X24 GND A 7 GND nmos1v_CDNS_7 $T=-2110 920 0 0 $X=-2530 $Y=720
X25 7 B 3 GND nmos1v_CDNS_7 $T=-830 920 0 0 $X=-1250 $Y=720
X26 GND Y 3 nmos1v_CDNS_8 $T=420 1020 0 0 $X=0 $Y=820
M0 7 A GND GND g45n1svt w=2.4e-07 l=4.5e-08 ad=3.36e-14 as=3.36e-14 pd=7.6e-07 ps=7.6e-07 sa=1.4e-07 sb=1.4e-07 sca=10.136 scb=0.00751359 scc=6.9702e-05 fw=2.4e-07 $X=-2110 $Y=920 $dt=0
M1 3 B 7 GND g45n1svt w=2.4e-07 l=4.5e-08 ad=3.36e-14 as=3.36e-14 pd=7.6e-07 ps=7.6e-07 sa=1.4e-07 sb=1.4e-07 sca=6.87617 scb=0.00381027 scc=4.05166e-05 fw=2.4e-07 $X=-830 $Y=920 $dt=0
M2 3 A VDD VDD g45p1svt w=2.4e-07 l=4.5e-08 ad=3.36e-14 as=3.36e-14 pd=7.6e-07 ps=7.6e-07 sa=1.4e-07 sb=1.4e-07 sca=16.0927 scb=0.0154531 scc=0.000419743 fw=2.4e-07 $X=-2110 $Y=2770 $dt=1
M3 3 B VDD VDD g45p1svt w=2.4e-07 l=4.5e-08 ad=3.36e-14 as=3.36e-14 pd=7.6e-07 ps=7.6e-07 sa=1.4e-07 sb=1.4e-07 sca=12.8329 scb=0.0117498 scc=0.000390557 fw=2.4e-07 $X=-830 $Y=2770 $dt=1
M4 Y 3 VDD VDD g45p1svt w=2.4e-07 l=4.5e-08 ad=3.36e-14 as=3.36e-14 pd=7.6e-07 ps=7.6e-07 sa=1.4e-07 sb=1.4e-07 sca=15.9246 scb=0.0151668 scc=0.000414946 fw=2.4e-07 $X=420 $Y=2770 $dt=1
.ends AND
