* +++++++++++++++++++++++++++++++++++++++++++++++++++++++++ *
* CDL Netlist:                                              *
*                                                           *
* Cell Name  : proc_el                                      *
* Netlisted  : Sun Apr 20 10:47:06 2025                     *
* Pegasus Version: 22.20-p009 Wed Jan 18 17:06:09 PST 2023  *
* +++++++++++++++++++++++++++++++++++++++++++++++++++++++++ *
*.LDD
*.DEVTMPLT 0 M(g45n1svt) _nmos1v ndiff_conn(D) poly_conn(G) ndiff_conn(S) psubstrate(B)
*.DEVTMPLT 1 M(g45p1svt) _pmos1v pdiff_conn(D) poly_conn(G) pdiff_conn(S) nwell_conn(B)

* +++++++++++++++++++++++++++++++++++++++++++++++++++++++++ *
* Sub cell: M2_M1_CDNS_1                                    *
* +++++++++++++++++++++++++++++++++++++++++++++++++++++++++ *
.subckt M2_M1_CDNS_1 1
** N=1 EP=1 FDC=0
.ends M2_M1_CDNS_1

* +++++++++++++++++++++++++++++++++++++++++++++++++++++++++ *
* Sub cell: M2_M1_CDNS_2                                    *
* +++++++++++++++++++++++++++++++++++++++++++++++++++++++++ *
.subckt M2_M1_CDNS_2 1
** N=1 EP=1 FDC=0
.ends M2_M1_CDNS_2

* +++++++++++++++++++++++++++++++++++++++++++++++++++++++++ *
* Sub cell: M2_M1_CDNS_3                                    *
* +++++++++++++++++++++++++++++++++++++++++++++++++++++++++ *
.subckt M2_M1_CDNS_3 1
** N=1 EP=1 FDC=0
.ends M2_M1_CDNS_3

* +++++++++++++++++++++++++++++++++++++++++++++++++++++++++ *
* Sub cell: M1_PO_CDNS_4                                    *
* +++++++++++++++++++++++++++++++++++++++++++++++++++++++++ *
.subckt M1_PO_CDNS_4 1
** N=1 EP=1 FDC=0
.ends M1_PO_CDNS_4

* +++++++++++++++++++++++++++++++++++++++++++++++++++++++++ *
* Sub cell: M1_NWELL_CDNS_5                                 *
* +++++++++++++++++++++++++++++++++++++++++++++++++++++++++ *
.subckt M1_NWELL_CDNS_5 1
** N=1 EP=1 FDC=0
.ends M1_NWELL_CDNS_5

* +++++++++++++++++++++++++++++++++++++++++++++++++++++++++ *
* Sub cell: M1_PSUB_CDNS_6                                  *
* +++++++++++++++++++++++++++++++++++++++++++++++++++++++++ *
.subckt M1_PSUB_CDNS_6 1
** N=1 EP=1 FDC=0
.ends M1_PSUB_CDNS_6

* +++++++++++++++++++++++++++++++++++++++++++++++++++++++++ *
* Sub cell: pmos1v_CDNS_7                                   *
* +++++++++++++++++++++++++++++++++++++++++++++++++++++++++ *
.subckt pmos1v_CDNS_7 1 2 3 4 5
*.DEVICECLIMB
** N=5 EP=5 FDC=0
.ends pmos1v_CDNS_7

* +++++++++++++++++++++++++++++++++++++++++++++++++++++++++ *
* Sub cell: nmos1v_CDNS_8                                   *
* +++++++++++++++++++++++++++++++++++++++++++++++++++++++++ *
.subckt nmos1v_CDNS_8 1 2 3 4
*.DEVICECLIMB
** N=4 EP=4 FDC=0
.ends nmos1v_CDNS_8

* +++++++++++++++++++++++++++++++++++++++++++++++++++++++++ *
* Sub cell: nmos1v_CDNS_9                                   *
* +++++++++++++++++++++++++++++++++++++++++++++++++++++++++ *
.subckt nmos1v_CDNS_9 1 2 3
** N=3 EP=3 FDC=1
M0 2 3 1 1 g45n1svt w=1.2e-07 l=4.5e-08 ad=1.68e-14 as=1.68e-14 pd=5.2e-07 ps=5.2e-07 sa=1.4e-07 sb=1.4e-07 sca=3.69959 scb=0.00013007 scc=4.39142e-09 fw=1.2e-07 $X=0 $Y=0 $dt=0
.ends nmos1v_CDNS_9

* +++++++++++++++++++++++++++++++++++++++++++++++++++++++++ *
* Sub cell: pmos1v_CDNS_10                                  *
* +++++++++++++++++++++++++++++++++++++++++++++++++++++++++ *
.subckt pmos1v_CDNS_10 1 2 3 4
*.DEVICECLIMB
** N=4 EP=4 FDC=0
.ends pmos1v_CDNS_10

* +++++++++++++++++++++++++++++++++++++++++++++++++++++++++ *
* Sub cell: FlipFlop                                        *
* +++++++++++++++++++++++++++++++++++++++++++++++++++++++++ *
.subckt FlipFlop 1 2 3 4 5 6 7 8 9 10
+ 11
*.DEVICECLIMB
** N=11 EP=11 FDC=4
X0 2 M2_M1_CDNS_1 $T=-2660 -120 0 0 $X=-2740 $Y=-250
X1 1 M2_M1_CDNS_1 $T=-2660 4390 0 0 $X=-2740 $Y=4260
X2 7 M2_M1_CDNS_1 $T=-2250 1340 0 0 $X=-2330 $Y=1210
X3 1 M2_M1_CDNS_1 $T=-1420 4420 0 0 $X=-1500 $Y=4290
X4 2 M2_M1_CDNS_1 $T=-1410 -110 0 0 $X=-1490 $Y=-240
X5 4 M2_M1_CDNS_1 $T=-450 2130 0 0 $X=-530 $Y=2000
X6 4 M2_M1_CDNS_1 $T=-450 2560 0 0 $X=-530 $Y=2430
X7 5 M2_M1_CDNS_1 $T=200 1720 0 0 $X=120 $Y=1590
X8 7 M2_M1_CDNS_1 $T=530 1330 0 0 $X=450 $Y=1200
X9 7 M2_M1_CDNS_1 $T=530 2570 0 0 $X=450 $Y=2440
X10 1 M2_M1_CDNS_1 $T=980 4420 0 0 $X=900 $Y=4290
X11 2 M2_M1_CDNS_1 $T=990 -110 0 0 $X=910 $Y=-240
X12 4 M2_M1_CDNS_1 $T=1770 1330 0 0 $X=1690 $Y=1200
X13 4 M2_M1_CDNS_1 $T=1770 2130 0 0 $X=1690 $Y=2000
X14 6 M2_M1_CDNS_1 $T=2570 2090 0 0 $X=2490 $Y=1960
X15 2 M2_M1_CDNS_2 $T=-2660 760 0 0 $X=-2740 $Y=490
X16 1 M2_M1_CDNS_2 $T=-2660 3400 0 0 $X=-2740 $Y=3130
X17 7 M2_M1_CDNS_2 $T=-2250 760 0 0 $X=-2330 $Y=490
X18 7 M2_M1_CDNS_2 $T=-2250 3400 0 0 $X=-2330 $Y=3130
X19 2 M2_M1_CDNS_2 $T=-1410 760 0 0 $X=-1490 $Y=490
X20 5 M2_M1_CDNS_2 $T=200 750 0 0 $X=120 $Y=480
X21 2 M2_M1_CDNS_2 $T=990 760 0 0 $X=910 $Y=490
X22 6 M2_M1_CDNS_2 $T=2570 750 0 0 $X=2490 $Y=480
X23 1 M2_M1_CDNS_3 $T=-1420 3380 0 0 $X=-1500 $Y=2830
X24 5 M2_M1_CDNS_3 $T=200 3400 0 0 $X=120 $Y=2850
X25 1 M2_M1_CDNS_3 $T=980 3380 0 0 $X=900 $Y=2830
X26 6 M2_M1_CDNS_3 $T=2570 3400 0 0 $X=2490 $Y=2850
X27 4 M1_PO_CDNS_4 $T=-2450 2560 0 0 $X=-2550 $Y=2440
X28 3 M1_PO_CDNS_4 $T=-1210 1715 0 0 $X=-1310 $Y=1595
X29 7 M1_PO_CDNS_4 $T=-5 1330 0 0 $X=-105 $Y=1210
X30 4 M1_PO_CDNS_4 $T=-5 2570 0 0 $X=-105 $Y=2450
X31 5 M1_PO_CDNS_4 $T=1180 1715 0 0 $X=1080 $Y=1595
X32 4 M1_PO_CDNS_4 $T=2365 1330 0 0 $X=2265 $Y=1210
X33 7 M1_PO_CDNS_4 $T=2365 2570 0 0 $X=2265 $Y=2450
X34 1 M1_NWELL_CDNS_5 $T=-620 4440 0 0 $X=-920 $Y=4060
X35 2 M1_PSUB_CDNS_6 $T=-560 -120 0 0 $X=-820 $Y=-400
X36 1 8 3 2 1 pmos1v_CDNS_7 $T=-1260 2910 0 0 $X=-1680 $Y=2710
X37 8 5 4 2 1 pmos1v_CDNS_7 $T=-50 2920 0 0 $X=-470 $Y=2720
X38 1 9 5 2 1 pmos1v_CDNS_7 $T=1140 2910 0 0 $X=720 $Y=2710
X39 9 6 7 2 1 pmos1v_CDNS_7 $T=2320 2920 0 0 $X=1900 $Y=2720
X40 2 3 10 2 nmos1v_CDNS_8 $T=-1260 510 0 0 $X=-1680 $Y=310
X41 10 7 5 2 nmos1v_CDNS_8 $T=-50 510 0 0 $X=-470 $Y=310
X42 2 5 11 2 nmos1v_CDNS_8 $T=1140 510 0 0 $X=720 $Y=310
X43 11 4 6 2 nmos1v_CDNS_8 $T=2320 510 0 0 $X=1900 $Y=310
X44 2 7 4 nmos1v_CDNS_9 $T=-2500 640 0 0 $X=-2920 $Y=440
X45 1 4 7 2 pmos1v_CDNS_10 $T=-2500 3160 0 0 $X=-2920 $Y=2960
M0 10 3 2 2 g45n1svt w=2.4e-07 l=4.5e-08 ad=3.36e-14 as=3.36e-14 pd=7.6e-07 ps=7.6e-07 sa=1.4e-07 sb=1.4e-07 sca=3.52678 scb=0.000111658 scc=3.66286e-09 fw=2.4e-07 $X=-1260 $Y=510 $dt=0
M1 5 7 10 2 g45n1svt w=2.4e-07 l=4.5e-08 ad=3.36e-14 as=3.36e-14 pd=7.6e-07 ps=7.6e-07 sa=1.4e-07 sb=1.4e-07 sca=3.52678 scb=0.000111658 scc=3.66286e-09 fw=2.4e-07 $X=-50 $Y=510 $dt=0
M2 11 5 2 2 g45n1svt w=2.4e-07 l=4.5e-08 ad=3.36e-14 as=3.36e-14 pd=7.6e-07 ps=7.6e-07 sa=1.4e-07 sb=1.4e-07 sca=3.52678 scb=0.000111658 scc=3.66286e-09 fw=2.4e-07 $X=1140 $Y=510 $dt=0
.ends FlipFlop

* +++++++++++++++++++++++++++++++++++++++++++++++++++++++++ *
* Sub cell: NAND                                            *
* +++++++++++++++++++++++++++++++++++++++++++++++++++++++++ *
.subckt NAND 1 2 3 4 5 6
*.DEVICECLIMB
** N=6 EP=6 FDC=2
X0 2 M2_M1_CDNS_1 $T=-1740 -970 0 0 $X=-1820 $Y=-1100
X1 1 M2_M1_CDNS_1 $T=-1740 2330 0 0 $X=-1820 $Y=2200
X2 3 M2_M1_CDNS_1 $T=-1330 680 0 0 $X=-1410 $Y=550
X3 1 M2_M1_CDNS_1 $T=-490 2330 0 0 $X=-570 $Y=2200
X4 3 M2_M1_CDNS_1 $T=-80 680 0 0 $X=-160 $Y=550
X5 2 M2_M1_CDNS_2 $T=-1740 -260 0 0 $X=-1820 $Y=-530
X6 1 M2_M1_CDNS_2 $T=-1740 1620 0 0 $X=-1820 $Y=1350
X7 3 M2_M1_CDNS_2 $T=-1330 1620 0 0 $X=-1410 $Y=1350
X8 1 M2_M1_CDNS_2 $T=-490 1620 0 0 $X=-570 $Y=1350
X9 3 M2_M1_CDNS_2 $T=-80 -260 0 0 $X=-160 $Y=-530
X10 3 M2_M1_CDNS_2 $T=-80 1620 0 0 $X=-160 $Y=1350
X11 5 M1_PO_CDNS_4 $T=-1535 1050 0 0 $X=-1635 $Y=930
X12 4 M1_PO_CDNS_4 $T=-285 310 0 0 $X=-385 $Y=190
X13 1 M1_NWELL_CDNS_5 $T=-970 2380 0 0 $X=-1270 $Y=2000
X14 2 M1_PSUB_CDNS_6 $T=-870 -960 0 0 $X=-1130 $Y=-1240
X15 2 5 6 2 nmos1v_CDNS_8 $T=-1580 -500 0 0 $X=-2000 $Y=-700
X16 6 4 3 2 nmos1v_CDNS_8 $T=-330 -500 0 0 $X=-750 $Y=-700
X17 1 5 3 2 pmos1v_CDNS_10 $T=-1580 1380 0 0 $X=-2000 $Y=1180
X18 1 4 3 2 pmos1v_CDNS_10 $T=-330 1380 0 0 $X=-750 $Y=1180
M0 6 5 2 2 g45n1svt w=2.4e-07 l=4.5e-08 ad=3.36e-14 as=3.36e-14 pd=7.6e-07 ps=7.6e-07 sa=1.4e-07 sb=1.4e-07 sca=3.52678 scb=0.000111658 scc=3.66286e-09 fw=2.4e-07 $X=-1580 $Y=-500 $dt=0
M1 3 4 6 2 g45n1svt w=2.4e-07 l=4.5e-08 ad=3.36e-14 as=3.36e-14 pd=7.6e-07 ps=7.6e-07 sa=1.4e-07 sb=1.4e-07 sca=3.52678 scb=0.000111658 scc=3.66286e-09 fw=2.4e-07 $X=-330 $Y=-500 $dt=0
.ends NAND

* +++++++++++++++++++++++++++++++++++++++++++++++++++++++++ *
* Sub cell: XOR                                             *
* +++++++++++++++++++++++++++++++++++++++++++++++++++++++++ *
.subckt XOR 1 2 3 4 5 6 7 8 9 10
+ 11
*.DEVICECLIMB
** N=11 EP=11 FDC=8
X0 1 M2_M1_CDNS_1 $T=-2720 2750 0 0 $X=-2800 $Y=2620
X1 1 M2_M1_CDNS_1 $T=-2720 6460 0 0 $X=-2800 $Y=6330
X2 2 M2_M1_CDNS_1 $T=-2380 2040 0 0 $X=-2460 $Y=1910
X3 2 M2_M1_CDNS_1 $T=-2380 5900 0 0 $X=-2460 $Y=5770
X4 3 M2_M1_CDNS_1 $T=-1770 60 0 0 $X=-1850 $Y=-70
X5 4 M2_M1_CDNS_1 $T=-1760 4560 0 0 $X=-1840 $Y=4430
X6 3 M2_M1_CDNS_1 $T=-1760 7650 0 0 $X=-1840 $Y=7520
X7 1 M2_M1_CDNS_1 $T=-850 1410 0 0 $X=-930 $Y=1280
X8 1 M2_M1_CDNS_1 $T=-850 2740 0 0 $X=-930 $Y=2610
X9 5 M2_M1_CDNS_1 $T=60 2700 0 0 $X=-20 $Y=2570
X10 6 M2_M1_CDNS_1 $T=540 1730 0 0 $X=460 $Y=1600
X11 6 M2_M1_CDNS_1 $T=540 2380 0 0 $X=460 $Y=2250
X12 3 M2_M1_CDNS_1 $T=1030 50 0 0 $X=950 $Y=-80
X13 4 M2_M1_CDNS_1 $T=1030 4570 0 0 $X=950 $Y=4440
X14 4 M2_M1_CDNS_1 $T=1900 4560 0 0 $X=1820 $Y=4430
X15 3 M2_M1_CDNS_1 $T=1900 7650 0 0 $X=1820 $Y=7520
X16 6 M2_M1_CDNS_1 $T=2310 5970 0 0 $X=2230 $Y=5840
X17 5 M2_M1_CDNS_1 $T=2810 2700 0 0 $X=2730 $Y=2570
X18 3 M2_M1_CDNS_1 $T=3240 60 0 0 $X=3160 $Y=-70
X19 3 M2_M1_CDNS_1 $T=3240 7620 0 0 $X=3160 $Y=7490
X20 3 M2_M1_CDNS_2 $T=-1770 850 0 0 $X=-1850 $Y=580
X21 4 M2_M1_CDNS_2 $T=-1760 5340 0 0 $X=-1840 $Y=5070
X22 3 M2_M1_CDNS_2 $T=-1760 6980 0 0 $X=-1840 $Y=6710
X23 7 M2_M1_CDNS_2 $T=-1350 5340 0 0 $X=-1430 $Y=5070
X24 7 M2_M1_CDNS_2 $T=-1350 6980 0 0 $X=-1430 $Y=6710
X25 5 M2_M1_CDNS_2 $T=60 850 0 0 $X=-20 $Y=580
X26 3 M2_M1_CDNS_2 $T=1030 850 0 0 $X=950 $Y=580
X27 4 M2_M1_CDNS_2 $T=1900 5340 0 0 $X=1820 $Y=5070
X28 3 M2_M1_CDNS_2 $T=1900 6980 0 0 $X=1820 $Y=6710
X29 6 M2_M1_CDNS_2 $T=2310 5340 0 0 $X=2230 $Y=5070
X30 6 M2_M1_CDNS_2 $T=2310 6980 0 0 $X=2230 $Y=6710
X31 5 M2_M1_CDNS_2 $T=2810 850 0 0 $X=2730 $Y=580
X32 4 M2_M1_CDNS_3 $T=-1770 3580 0 0 $X=-1850 $Y=3030
X33 5 M2_M1_CDNS_3 $T=60 3570 0 0 $X=-20 $Y=3020
X34 4 M2_M1_CDNS_3 $T=1030 3570 0 0 $X=950 $Y=3020
X35 5 M2_M1_CDNS_3 $T=2810 3560 0 0 $X=2730 $Y=3010
X36 6 M1_PO_CDNS_4 $T=-1565 1720 0 0 $X=-1665 $Y=1600
X37 1 M1_PO_CDNS_4 $T=-1565 2750 0 0 $X=-1665 $Y=2630
X38 2 M1_PO_CDNS_4 $T=-1555 5900 0 0 $X=-1655 $Y=5780
X39 7 M1_PO_CDNS_4 $T=-145 5330 0 0 $X=-245 $Y=5210
X40 6 M1_PO_CDNS_4 $T=1235 2390 0 0 $X=1135 $Y=2270
X41 6 M1_PO_CDNS_4 $T=1235 5970 0 0 $X=1135 $Y=5850
X42 1 M1_PO_CDNS_4 $T=1240 1420 0 0 $X=1140 $Y=1300
X43 1 M1_PO_CDNS_4 $T=2100 6465 0 0 $X=2000 $Y=6345
X44 2 M1_PO_CDNS_4 $T=2600 2035 0 0 $X=2500 $Y=1915
X45 4 M1_NWELL_CDNS_5 $T=520 4590 0 0 $X=220 $Y=4210
X46 3 M1_PSUB_CDNS_6 $T=490 7650 0 0 $X=230 $Y=7370
X47 3 M1_PSUB_CDNS_6 $T=520 70 0 0 $X=260 $Y=-210
X48 4 8 1 3 4 pmos1v_CDNS_7 $T=-1610 3090 0 0 $X=-2030 $Y=2890
X49 8 5 7 3 4 pmos1v_CDNS_7 $T=-190 3090 0 0 $X=-610 $Y=2890
X50 4 9 6 3 4 pmos1v_CDNS_7 $T=1190 3090 0 0 $X=770 $Y=2890
X51 9 5 2 3 4 pmos1v_CDNS_7 $T=2560 3090 0 0 $X=2140 $Y=2890
X52 3 6 10 3 nmos1v_CDNS_8 $T=-1610 610 0 0 $X=-2030 $Y=410
X53 10 7 5 3 nmos1v_CDNS_8 $T=-190 610 0 0 $X=-610 $Y=410
X54 3 1 11 3 nmos1v_CDNS_8 $T=1190 610 0 0 $X=770 $Y=410
X55 11 2 5 3 nmos1v_CDNS_8 $T=2560 610 0 0 $X=2140 $Y=410
X56 3 7 2 nmos1v_CDNS_9 $T=-1600 6860 0 0 $X=-2020 $Y=6660
X57 3 6 1 nmos1v_CDNS_9 $T=2060 6860 0 0 $X=1640 $Y=6660
X58 4 2 7 3 pmos1v_CDNS_10 $T=-1600 5100 0 0 $X=-2020 $Y=4900
X59 4 1 6 3 pmos1v_CDNS_10 $T=2060 5100 0 0 $X=1640 $Y=4900
M0 10 6 3 3 g45n1svt w=2.4e-07 l=4.5e-08 ad=3.36e-14 as=3.36e-14 pd=7.6e-07 ps=7.6e-07 sa=1.4e-07 sb=1.4e-07 sca=3.52678 scb=0.000111658 scc=3.66286e-09 fw=2.4e-07 $X=-1610 $Y=610 $dt=0
M1 5 7 10 3 g45n1svt w=2.4e-07 l=4.5e-08 ad=3.36e-14 as=3.36e-14 pd=7.6e-07 ps=7.6e-07 sa=1.4e-07 sb=1.4e-07 sca=3.52678 scb=0.000111658 scc=3.66286e-09 fw=2.4e-07 $X=-190 $Y=610 $dt=0
M2 11 1 3 3 g45n1svt w=2.4e-07 l=4.5e-08 ad=3.36e-14 as=3.36e-14 pd=7.6e-07 ps=7.6e-07 sa=1.4e-07 sb=1.4e-07 sca=3.52678 scb=0.000111658 scc=3.66286e-09 fw=2.4e-07 $X=1190 $Y=610 $dt=0
M3 5 2 11 3 g45n1svt w=2.4e-07 l=4.5e-08 ad=3.36e-14 as=3.36e-14 pd=7.6e-07 ps=7.6e-07 sa=1.4e-07 sb=1.4e-07 sca=3.52678 scb=0.000111658 scc=3.66286e-09 fw=2.4e-07 $X=2560 $Y=610 $dt=0
M4 5 7 8 4 g45p1svt w=4.8e-07 l=4.5e-08 ad=6.72e-14 as=6.72e-14 pd=1.24e-06 ps=1.24e-06 sa=1.4e-07 sb=1.4e-07 sca=9.47395 scb=0.00759651 scc=0.000374483 fw=4.8e-07 $X=-190 $Y=3090 $dt=1
M5 9 6 4 4 g45p1svt w=4.8e-07 l=4.5e-08 ad=6.72e-14 as=6.72e-14 pd=1.24e-06 ps=1.24e-06 sa=1.4e-07 sb=1.4e-07 sca=9.47395 scb=0.00759651 scc=0.000374483 fw=4.8e-07 $X=1190 $Y=3090 $dt=1
.ends XOR

* +++++++++++++++++++++++++++++++++++++++++++++++++++++++++ *
* Sub cell: Full_Adder                                      *
* +++++++++++++++++++++++++++++++++++++++++++++++++++++++++ *
.subckt Full_Adder 1 2 3 4 5 6 7 8 9 10
+ 12 13 22 25
*.DEVICECLIMB
** N=25 EP=14 FDC=26
X0 1 M2_M1_CDNS_1 $T=-9300 1470 0 0 $X=-9380 $Y=1340
X1 2 M2_M1_CDNS_1 $T=-8960 730 0 0 $X=-9040 $Y=600
X2 5 M2_M1_CDNS_1 $T=-6260 2080 0 0 $X=-6340 $Y=1950
X3 5 M2_M1_CDNS_1 $T=-6260 3400 0 0 $X=-6340 $Y=3270
X4 8 M2_M1_CDNS_1 $T=-5830 1100 0 0 $X=-5910 $Y=970
X5 8 M2_M1_CDNS_1 $T=-5830 3270 0 0 $X=-5910 $Y=3140
X6 9 M2_M1_CDNS_1 $T=-2940 1470 0 0 $X=-3020 $Y=1340
X7 9 M2_M1_CDNS_1 $T=-2940 6230 0 0 $X=-3020 $Y=6100
X8 9 M2_M1_CDNS_1 $T=-2940 6890 0 0 $X=-3020 $Y=6760
X9 5 M2_M1_CDNS_1 $T=-2490 740 0 0 $X=-2570 $Y=610
X10 5 M2_M1_CDNS_1 $T=-2490 2080 0 0 $X=-2570 $Y=1950
X11 3 M2_M1_CDNS_1 $T=-1850 8710 0 0 $X=-1930 $Y=8580
X12 8 M2_M1_CDNS_1 $T=610 740 0 0 $X=530 $Y=610
X13 8 M2_M1_CDNS_1 $T=610 3270 0 0 $X=530 $Y=3140
X14 4 M2_M1_CDNS_1 $T=3470 -540 0 0 $X=3390 $Y=-670
X15 10 M2_M1_CDNS_2 $T=220 1290 0 0 $X=140 $Y=1020
X16 1 2 4 3 9 11 12 22 23 16
+ 17 XOR $T=-6580 4190 0 0 $X=-9990 $Y=3980
X17 5 9 4 3 6 13 14 24 25 19
+ 20 XOR $T=230 4190 0 0 $X=-3180 $Y=3980
X18 3 4 8 2 1 15 NAND $T=-6740 420 0 0 $X=-9060 $Y=-820
X19 3 4 10 5 9 18 NAND $T=-120 420 0 0 $X=-2440 $Y=-820
X20 3 4 7 8 10 21 NAND $T=3090 420 0 0 $X=770 $Y=-820
M0 11 1 3 3 g45p1svt w=2.4e-07 l=4.5e-08 ad=3.36e-14 as=3.36e-14 pd=7.6e-07 ps=7.6e-07 sa=1.4e-07 sb=1.4e-07 sca=34.1422 scb=0.0251568 scc=0.00441949 fw=2.4e-07 $X=-4520 $Y=9290 $dt=1
M1 9 2 23 3 g45p1svt w=4.8e-07 l=4.5e-08 ad=6.72e-14 as=6.72e-14 pd=1.24e-06 ps=1.24e-06 sa=1.4e-07 sb=1.4e-07 sca=9.47395 scb=0.00759651 scc=0.000374483 fw=4.8e-07 $X=-4020 $Y=7280 $dt=1
M2 24 5 3 3 g45p1svt w=4.8e-07 l=4.5e-08 ad=6.72e-14 as=6.72e-14 pd=1.24e-06 ps=1.24e-06 sa=1.4e-07 sb=1.4e-07 sca=9.47395 scb=0.00759651 scc=0.000374483 fw=4.8e-07 $X=-1380 $Y=7280 $dt=1
M3 14 9 3 3 g45p1svt w=2.4e-07 l=4.5e-08 ad=3.36e-14 as=3.36e-14 pd=7.6e-07 ps=7.6e-07 sa=1.4e-07 sb=1.4e-07 sca=34.1422 scb=0.0251568 scc=0.00441949 fw=2.4e-07 $X=-1370 $Y=9290 $dt=1
.ends Full_Adder

* +++++++++++++++++++++++++++++++++++++++++++++++++++++++++ *
* Sub cell: inv                                             *
* +++++++++++++++++++++++++++++++++++++++++++++++++++++++++ *
.subckt inv 1 2 3 4
** N=4 EP=4 FDC=2
X0 2 M2_M1_CDNS_1 $T=-250 -340 0 0 $X=-330 $Y=-470
X1 1 M2_M1_CDNS_1 $T=-250 2700 0 0 $X=-330 $Y=2570
X2 4 M2_M1_CDNS_1 $T=160 790 0 0 $X=80 $Y=660
X3 2 M2_M1_CDNS_2 $T=-250 255 0 0 $X=-330 $Y=-15
X4 1 M2_M1_CDNS_2 $T=-250 1860 0 0 $X=-330 $Y=1590
X5 4 M2_M1_CDNS_2 $T=160 255 0 0 $X=80 $Y=-15
X6 4 M2_M1_CDNS_2 $T=160 1860 0 0 $X=80 $Y=1590
X7 3 M1_PO_CDNS_4 $T=-40 1260 0 0 $X=-140 $Y=1140
X8 1 M1_NWELL_CDNS_5 $T=700 2720 0 0 $X=400 $Y=2340
X9 2 M1_PSUB_CDNS_6 $T=790 -400 0 0 $X=530 $Y=-680
X10 2 4 3 nmos1v_CDNS_9 $T=-90 135 0 0 $X=-510 $Y=-65
X11 1 3 4 2 pmos1v_CDNS_10 $T=-90 1620 0 0 $X=-510 $Y=1420
M0 4 3 1 1 g45p1svt w=2.4e-07 l=4.5e-08 ad=3.36e-14 as=3.36e-14 pd=7.6e-07 ps=7.6e-07 sa=1.4e-07 sb=1.4e-07 sca=27.9284 scb=0.0232624 scc=0.00337691 fw=2.4e-07 $X=-90 $Y=1620 $dt=1
.ends inv

* +++++++++++++++++++++++++++++++++++++++++++++++++++++++++ *
* Sub cell: faabs                                           *
* +++++++++++++++++++++++++++++++++++++++++++++++++++++++++ *
.subckt faabs 1 2 3 4 5 6 7 8 9 10
+ 11 12 14 19 20 31 36
*.DEVICECLIMB
** N=36 EP=17 FDC=48
X0 3 M2_M1_CDNS_1 $T=-12470 -460 0 0 $X=-12550 $Y=-590
X1 2 M2_M1_CDNS_1 $T=-12470 4000 0 0 $X=-12550 $Y=3870
X2 1 M2_M1_CDNS_1 $T=-11240 4320 0 0 $X=-11320 $Y=4190
X3 9 M2_M1_CDNS_1 $T=-40 1250 0 0 $X=-120 $Y=1120
X4 9 M2_M1_CDNS_1 $T=-40 7490 0 0 $X=-120 $Y=7360
X5 7 M2_M1_CDNS_1 $T=260 2010 0 0 $X=180 $Y=1880
X6 8 M2_M1_CDNS_1 $T=560 7540 0 0 $X=480 $Y=7410
X7 3 M2_M1_CDNS_1 $T=860 -460 0 0 $X=780 $Y=-590
X8 3 M2_M1_CDNS_1 $T=860 1650 0 0 $X=780 $Y=1520
X9 10 M2_M1_CDNS_1 $T=1160 3770 0 0 $X=1080 $Y=3640
X10 10 M2_M1_CDNS_1 $T=1160 6690 0 0 $X=1080 $Y=6560
X11 10 M2_M1_CDNS_1 $T=3790 1610 0 0 $X=3710 $Y=1480
X12 10 M2_M1_CDNS_1 $T=3790 3770 0 0 $X=3710 $Y=3640
X13 11 M2_M1_CDNS_1 $T=4720 1700 0 0 $X=4640 $Y=1570
X14 11 M2_M1_CDNS_1 $T=4720 3860 0 0 $X=4640 $Y=3730
X15 1 M2_M1_CDNS_1 $T=7360 1220 0 0 $X=7280 $Y=1090
X16 1 M2_M1_CDNS_1 $T=7360 4320 0 0 $X=7280 $Y=4190
X17 11 M2_M1_CDNS_1 $T=7660 3860 0 0 $X=7580 $Y=3730
X18 11 M2_M1_CDNS_1 $T=7660 7070 0 0 $X=7580 $Y=6940
X19 5 4 10 9 7 30 NAND $T=3320 930 0 0 $X=1000 $Y=-310
X20 1 6 5 4 2 9 3 19 15 18
+ 14 16 31 34 Full_Adder $T=-3810 600 0 0 $X=-13800 $Y=-220
X21 5 4 11 1 inv $T=6090 430 0 0 $X=4850 $Y=-250
X22 5 4 10 8 12 11 20 35 36 28
+ 29 FlipFlop $T=4300 4980 0 0 $X=890 $Y=4580
M0 11 8 29 4 g45n1svt w=2.4e-07 l=4.5e-08 ad=3.36e-14 as=3.36e-14 pd=7.6e-07 ps=7.6e-07 sa=1.4e-07 sb=1.4e-07 sca=3.52678 scb=0.000111658 scc=3.66286e-09 fw=2.4e-07 $X=6620 $Y=5490 $dt=0
M1 19 6 5 5 g45p1svt w=2.4e-07 l=4.5e-08 ad=3.36e-14 as=3.36e-14 pd=7.6e-07 ps=7.6e-07 sa=1.4e-07 sb=1.4e-07 sca=13.9617 scb=0.0132915 scc=0.000629907 fw=2.4e-07 $X=-10880 $Y=2400 $dt=1
M2 18 15 5 5 g45p1svt w=2.4e-07 l=4.5e-08 ad=3.36e-14 as=3.36e-14 pd=7.6e-07 ps=7.6e-07 sa=1.4e-07 sb=1.4e-07 sca=13.9617 scb=0.0132915 scc=0.000629907 fw=2.4e-07 $X=-5510 $Y=2400 $dt=1
M3 18 2 5 5 g45p1svt w=2.4e-07 l=4.5e-08 ad=3.36e-14 as=3.36e-14 pd=7.6e-07 ps=7.6e-07 sa=1.4e-07 sb=1.4e-07 sca=13.9617 scb=0.0132915 scc=0.000629907 fw=2.4e-07 $X=-4260 $Y=2400 $dt=1
M4 3 18 5 5 g45p1svt w=2.4e-07 l=4.5e-08 ad=3.36e-14 as=3.36e-14 pd=7.6e-07 ps=7.6e-07 sa=1.4e-07 sb=1.4e-07 sca=13.9617 scb=0.0132915 scc=0.000629907 fw=2.4e-07 $X=-2300 $Y=2400 $dt=1
M5 16 2 5 5 g45p1svt w=2.4e-07 l=4.5e-08 ad=3.36e-14 as=3.36e-14 pd=7.6e-07 ps=7.6e-07 sa=1.4e-07 sb=1.4e-07 sca=34.1422 scb=0.0251568 scc=0.00441949 fw=2.4e-07 $X=-1520 $Y=9890 $dt=1
M6 3 19 5 5 g45p1svt w=2.4e-07 l=4.5e-08 ad=3.36e-14 as=3.36e-14 pd=7.6e-07 ps=7.6e-07 sa=1.4e-07 sb=1.4e-07 sca=13.9617 scb=0.0132915 scc=0.000629907 fw=2.4e-07 $X=-1050 $Y=2400 $dt=1
M7 9 15 34 5 g45p1svt w=4.8e-07 l=4.5e-08 ad=6.72e-14 as=6.72e-14 pd=1.24e-06 ps=1.24e-06 sa=1.4e-07 sb=1.4e-07 sca=9.47395 scb=0.00759651 scc=0.000374483 fw=4.8e-07 $X=-1020 $Y=7880 $dt=1
M8 10 7 5 5 g45p1svt w=2.4e-07 l=4.5e-08 ad=3.36e-14 as=3.36e-14 pd=7.6e-07 ps=7.6e-07 sa=1.4e-07 sb=1.4e-07 sca=17.3073 scb=0.0169295 scc=0.00128868 fw=2.4e-07 $X=1740 $Y=2310 $dt=1
M9 20 8 5 5 g45p1svt w=2.4e-07 l=4.5e-08 ad=3.36e-14 as=3.36e-14 pd=7.6e-07 ps=7.6e-07 sa=1.4e-07 sb=1.4e-07 sca=10.0441 scb=0.00891249 scc=0.000296773 fw=2.4e-07 $X=1800 $Y=8140 $dt=1
M10 10 9 5 5 g45p1svt w=2.4e-07 l=4.5e-08 ad=3.36e-14 as=3.36e-14 pd=7.6e-07 ps=7.6e-07 sa=1.4e-07 sb=1.4e-07 sca=17.3073 scb=0.0169295 scc=0.00128868 fw=2.4e-07 $X=2990 $Y=2310 $dt=1
M11 35 10 5 5 g45p1svt w=4.8e-07 l=4.5e-08 ad=6.72e-14 as=6.72e-14 pd=1.24e-06 ps=1.24e-06 sa=1.4e-07 sb=1.4e-07 sca=13.8415 scb=0.0117975 scc=0.0011174 fw=4.8e-07 $X=3040 $Y=7890 $dt=1
M12 12 8 35 5 g45p1svt w=4.8e-07 l=4.5e-08 ad=6.72e-14 as=6.72e-14 pd=1.24e-06 ps=1.24e-06 sa=1.4e-07 sb=1.4e-07 sca=13.3978 scb=0.0114602 scc=0.001037 fw=4.8e-07 $X=4250 $Y=7900 $dt=1
M13 36 12 5 5 g45p1svt w=4.8e-07 l=4.5e-08 ad=6.72e-14 as=6.72e-14 pd=1.24e-06 ps=1.24e-06 sa=1.4e-07 sb=1.4e-07 sca=13.8415 scb=0.0117975 scc=0.0011174 fw=4.8e-07 $X=5440 $Y=7890 $dt=1
.ends faabs

* +++++++++++++++++++++++++++++++++++++++++++++++++++++++++ *
* Sub cell: AND                                             *
* +++++++++++++++++++++++++++++++++++++++++++++++++++++++++ *
.subckt AND 1 2 3 4 5 6 7
*.DEVICECLIMB
** N=7 EP=7 FDC=4
X0 2 M2_M1_CDNS_1 $T=-2270 400 0 0 $X=-2350 $Y=270
X1 1 M2_M1_CDNS_1 $T=-2270 3710 0 0 $X=-2350 $Y=3580
X2 6 M2_M1_CDNS_1 $T=-1860 2090 0 0 $X=-1940 $Y=1960
X3 1 M2_M1_CDNS_1 $T=-990 3710 0 0 $X=-1070 $Y=3580
X4 6 M2_M1_CDNS_1 $T=-580 2090 0 0 $X=-660 $Y=1960
X5 2 M2_M1_CDNS_1 $T=260 450 0 0 $X=180 $Y=320
X6 1 M2_M1_CDNS_1 $T=260 3710 0 0 $X=180 $Y=3580
X7 5 M2_M1_CDNS_1 $T=670 1690 0 0 $X=590 $Y=1560
X8 2 M2_M1_CDNS_2 $T=-2270 1160 0 0 $X=-2350 $Y=890
X9 1 M2_M1_CDNS_2 $T=-2270 3010 0 0 $X=-2350 $Y=2740
X10 6 M2_M1_CDNS_2 $T=-1860 3010 0 0 $X=-1940 $Y=2740
X11 1 M2_M1_CDNS_2 $T=-990 3010 0 0 $X=-1070 $Y=2740
X12 6 M2_M1_CDNS_2 $T=-580 1170 0 0 $X=-660 $Y=900
X13 6 M2_M1_CDNS_2 $T=-580 3010 0 0 $X=-660 $Y=2740
X14 2 M2_M1_CDNS_2 $T=260 1140 0 0 $X=180 $Y=870
X15 1 M2_M1_CDNS_2 $T=260 3010 0 0 $X=180 $Y=2740
X16 5 M2_M1_CDNS_2 $T=670 1140 0 0 $X=590 $Y=870
X17 5 M2_M1_CDNS_2 $T=670 3010 0 0 $X=590 $Y=2740
X18 4 M1_PO_CDNS_4 $T=-2060 2460 0 0 $X=-2160 $Y=2340
X19 3 M1_PO_CDNS_4 $T=-790 1720 0 0 $X=-890 $Y=1600
X20 6 M1_PO_CDNS_4 $T=460 2090 0 0 $X=360 $Y=1970
X21 1 M1_NWELL_CDNS_5 $T=-1460 3780 0 0 $X=-1760 $Y=3400
X22 2 M1_PSUB_CDNS_6 $T=-1420 430 0 0 $X=-1680 $Y=150
X23 2 4 7 2 nmos1v_CDNS_8 $T=-2110 920 0 0 $X=-2530 $Y=720
X24 7 3 6 2 nmos1v_CDNS_8 $T=-830 920 0 0 $X=-1250 $Y=720
X25 2 5 6 nmos1v_CDNS_9 $T=420 1020 0 0 $X=0 $Y=820
X26 1 4 6 2 pmos1v_CDNS_10 $T=-2110 2770 0 0 $X=-2530 $Y=2570
X27 1 3 6 2 pmos1v_CDNS_10 $T=-830 2770 0 0 $X=-1250 $Y=2570
X28 1 6 5 2 pmos1v_CDNS_10 $T=420 2770 0 0 $X=0 $Y=2570
M0 7 4 2 2 g45n1svt w=2.4e-07 l=4.5e-08 ad=3.36e-14 as=3.36e-14 pd=7.6e-07 ps=7.6e-07 sa=1.4e-07 sb=1.4e-07 sca=3.52678 scb=0.000111658 scc=3.66286e-09 fw=2.4e-07 $X=-2110 $Y=920 $dt=0
M1 6 3 7 2 g45n1svt w=2.4e-07 l=4.5e-08 ad=3.36e-14 as=3.36e-14 pd=7.6e-07 ps=7.6e-07 sa=1.4e-07 sb=1.4e-07 sca=3.52678 scb=0.000111658 scc=3.66286e-09 fw=2.4e-07 $X=-830 $Y=920 $dt=0
M2 6 3 1 1 g45p1svt w=2.4e-07 l=4.5e-08 ad=3.36e-14 as=3.36e-14 pd=7.6e-07 ps=7.6e-07 sa=1.4e-07 sb=1.4e-07 sca=12.8329 scb=0.0117498 scc=0.000390557 fw=2.4e-07 $X=-830 $Y=2770 $dt=1
.ends AND

* +++++++++++++++++++++++++++++++++++++++++++++++++++++++++ *
* Sub cell: Half_Adder                                      *
* +++++++++++++++++++++++++++++++++++++++++++++++++++++++++ *
.subckt Half_Adder 1 2 3 4 5 6 7 8 9 10
+ 11 12 13
*.DEVICECLIMB
** N=13 EP=13 FDC=15
X0 1 M2_M1_CDNS_1 $T=-3270 -790 0 0 $X=-3350 $Y=-920
X1 1 M2_M1_CDNS_1 $T=-3270 3580 0 0 $X=-3350 $Y=3450
X2 2 M2_M1_CDNS_1 $T=-2930 -1500 0 0 $X=-3010 $Y=-1630
X3 2 M2_M1_CDNS_1 $T=-2930 2360 0 0 $X=-3010 $Y=2230
X4 3 M2_M1_CDNS_1 $T=-2320 -3480 0 0 $X=-2400 $Y=-3610
X5 4 M2_M1_CDNS_1 $T=-2310 1020 0 0 $X=-2390 $Y=890
X6 3 M2_M1_CDNS_1 $T=-2310 4770 0 0 $X=-2390 $Y=4640
X7 7 M2_M1_CDNS_1 $T=-1900 2810 0 0 $X=-1980 $Y=2680
X8 1 M2_M1_CDNS_1 $T=-1400 -2130 0 0 $X=-1480 $Y=-2260
X9 1 M2_M1_CDNS_1 $T=-1400 -800 0 0 $X=-1480 $Y=-930
X10 5 M2_M1_CDNS_1 $T=-490 -840 0 0 $X=-570 $Y=-970
X11 8 M2_M1_CDNS_1 $T=-10 -1810 0 0 $X=-90 $Y=-1940
X12 8 M2_M1_CDNS_1 $T=-10 -1160 0 0 $X=-90 $Y=-1290
X13 3 M2_M1_CDNS_1 $T=480 -3490 0 0 $X=400 $Y=-3620
X14 4 M2_M1_CDNS_1 $T=480 1030 0 0 $X=400 $Y=900
X15 4 M2_M1_CDNS_1 $T=1350 1020 0 0 $X=1270 $Y=890
X16 3 M2_M1_CDNS_1 $T=1350 4770 0 0 $X=1270 $Y=4640
X17 8 M2_M1_CDNS_1 $T=1760 2430 0 0 $X=1680 $Y=2300
X18 8 M2_M1_CDNS_1 $T=1760 3210 0 0 $X=1680 $Y=3080
X19 5 M2_M1_CDNS_1 $T=2260 -840 0 0 $X=2180 $Y=-970
X20 4 M2_M1_CDNS_1 $T=2890 1050 0 0 $X=2810 $Y=920
X21 3 M2_M1_CDNS_1 $T=2890 4840 0 0 $X=2810 $Y=4710
X22 6 M2_M1_CDNS_1 $T=3300 3580 0 0 $X=3220 $Y=3450
X23 3 M2_M1_CDNS_1 $T=4230 4840 0 0 $X=4150 $Y=4710
X24 6 M2_M1_CDNS_1 $T=4640 3580 0 0 $X=4560 $Y=3450
X25 3 M2_M1_CDNS_1 $T=5320 -3480 0 0 $X=5240 $Y=-3610
X26 3 M2_M1_CDNS_1 $T=5320 4820 0 0 $X=5240 $Y=4690
X27 3 M2_M1_CDNS_2 $T=-2320 -2690 0 0 $X=-2400 $Y=-2960
X28 4 M2_M1_CDNS_2 $T=-2310 1800 0 0 $X=-2390 $Y=1530
X29 3 M2_M1_CDNS_2 $T=-2310 4100 0 0 $X=-2390 $Y=3830
X30 7 M2_M1_CDNS_2 $T=-1900 1800 0 0 $X=-1980 $Y=1530
X31 7 M2_M1_CDNS_2 $T=-1900 4100 0 0 $X=-1980 $Y=3830
X32 5 M2_M1_CDNS_2 $T=-490 -2690 0 0 $X=-570 $Y=-2960
X33 3 M2_M1_CDNS_2 $T=480 -2690 0 0 $X=400 $Y=-2960
X34 4 M2_M1_CDNS_2 $T=1350 1800 0 0 $X=1270 $Y=1530
X35 3 M2_M1_CDNS_2 $T=1350 4100 0 0 $X=1270 $Y=3830
X36 8 M2_M1_CDNS_2 $T=1760 1800 0 0 $X=1680 $Y=1530
X37 8 M2_M1_CDNS_2 $T=1760 4100 0 0 $X=1680 $Y=3830
X38 5 M2_M1_CDNS_2 $T=2260 -2690 0 0 $X=2180 $Y=-2960
X39 3 M2_M1_CDNS_2 $T=2890 4110 0 0 $X=2810 $Y=3840
X40 6 M2_M1_CDNS_2 $T=3300 4110 0 0 $X=3220 $Y=3840
X41 3 M2_M1_CDNS_2 $T=4230 4110 0 0 $X=4150 $Y=3840
X42 6 M2_M1_CDNS_2 $T=4640 4110 0 0 $X=4560 $Y=3840
X43 4 M2_M1_CDNS_3 $T=-2320 40 0 0 $X=-2400 $Y=-510
X44 5 M2_M1_CDNS_3 $T=-490 30 0 0 $X=-570 $Y=-520
X45 4 M2_M1_CDNS_3 $T=480 30 0 0 $X=400 $Y=-520
X46 5 M2_M1_CDNS_3 $T=2260 20 0 0 $X=2180 $Y=-530
X47 4 M2_M1_CDNS_3 $T=2890 1960 0 0 $X=2810 $Y=1410
X48 6 M2_M1_CDNS_3 $T=4640 1960 0 0 $X=4560 $Y=1410
X49 8 M1_PO_CDNS_4 $T=-2115 -1820 0 0 $X=-2215 $Y=-1940
X50 1 M1_PO_CDNS_4 $T=-2115 -790 0 0 $X=-2215 $Y=-910
X51 2 M1_PO_CDNS_4 $T=-2105 2360 0 0 $X=-2205 $Y=2240
X52 7 M1_PO_CDNS_4 $T=-695 1790 0 0 $X=-795 $Y=1670
X53 8 M1_PO_CDNS_4 $T=685 -1150 0 0 $X=585 $Y=-1270
X54 8 M1_PO_CDNS_4 $T=685 2430 0 0 $X=585 $Y=2310
X55 1 M1_PO_CDNS_4 $T=690 -2120 0 0 $X=590 $Y=-2240
X56 1 M1_PO_CDNS_4 $T=1550 3585 0 0 $X=1450 $Y=3465
X57 2 M1_PO_CDNS_4 $T=2050 -1505 0 0 $X=1950 $Y=-1625
X58 8 M1_PO_CDNS_4 $T=3090 3210 0 0 $X=2990 $Y=3090
X59 7 M1_PO_CDNS_4 $T=4430 2820 0 0 $X=4330 $Y=2700
X60 4 M1_NWELL_CDNS_5 $T=-30 1050 0 0 $X=-330 $Y=670
X61 3 M1_PSUB_CDNS_6 $T=-60 4770 0 0 $X=-320 $Y=4490
X62 3 M1_PSUB_CDNS_6 $T=-30 -3470 0 0 $X=-290 $Y=-3750
X63 4 9 1 3 4 pmos1v_CDNS_7 $T=-2160 -450 0 0 $X=-2580 $Y=-650
X64 9 5 7 3 4 pmos1v_CDNS_7 $T=-740 -450 0 0 $X=-1160 $Y=-650
X65 4 10 8 3 4 pmos1v_CDNS_7 $T=640 -450 0 0 $X=220 $Y=-650
X66 10 5 2 3 4 pmos1v_CDNS_7 $T=2010 -450 0 0 $X=1590 $Y=-650
X67 4 11 8 3 4 pmos1v_CDNS_7 $T=3050 1480 0 0 $X=2630 $Y=1280
X68 11 6 7 3 4 pmos1v_CDNS_7 $T=4390 1480 0 0 $X=3970 $Y=1280
X69 3 8 12 3 nmos1v_CDNS_8 $T=-2160 -2930 0 0 $X=-2580 $Y=-3130
X70 12 7 5 3 nmos1v_CDNS_8 $T=-740 -2930 0 0 $X=-1160 $Y=-3130
X71 3 1 13 3 nmos1v_CDNS_8 $T=640 -2930 0 0 $X=220 $Y=-3130
X72 13 2 5 3 nmos1v_CDNS_8 $T=2010 -2930 0 0 $X=1590 $Y=-3130
X73 3 7 2 nmos1v_CDNS_9 $T=-2150 3980 0 0 $X=-2570 $Y=3780
X74 3 8 1 nmos1v_CDNS_9 $T=1510 3980 0 0 $X=1090 $Y=3780
X75 3 6 8 nmos1v_CDNS_9 $T=3050 3980 0 0 $X=2630 $Y=3780
X76 3 6 7 nmos1v_CDNS_9 $T=4390 3980 0 0 $X=3970 $Y=3780
X77 4 2 7 3 pmos1v_CDNS_10 $T=-2150 1560 0 0 $X=-2570 $Y=1360
X78 4 1 8 3 pmos1v_CDNS_10 $T=1510 1560 0 0 $X=1090 $Y=1360
M0 12 8 3 3 g45n1svt w=2.4e-07 l=4.5e-08 ad=3.36e-14 as=3.36e-14 pd=7.6e-07 ps=7.6e-07 sa=1.4e-07 sb=1.4e-07 sca=3.52678 scb=0.000111658 scc=3.66286e-09 fw=2.4e-07 $X=-2160 $Y=-2930 $dt=0
M1 5 7 12 3 g45n1svt w=2.4e-07 l=4.5e-08 ad=3.36e-14 as=3.36e-14 pd=7.6e-07 ps=7.6e-07 sa=1.4e-07 sb=1.4e-07 sca=3.52678 scb=0.000111658 scc=3.66286e-09 fw=2.4e-07 $X=-740 $Y=-2930 $dt=0
M2 13 1 3 3 g45n1svt w=2.4e-07 l=4.5e-08 ad=3.36e-14 as=3.36e-14 pd=7.6e-07 ps=7.6e-07 sa=1.4e-07 sb=1.4e-07 sca=3.52678 scb=0.000111658 scc=3.66286e-09 fw=2.4e-07 $X=640 $Y=-2930 $dt=0
M3 5 2 13 3 g45n1svt w=2.4e-07 l=4.5e-08 ad=3.36e-14 as=3.36e-14 pd=7.6e-07 ps=7.6e-07 sa=1.4e-07 sb=1.4e-07 sca=3.52678 scb=0.000111658 scc=3.66286e-09 fw=2.4e-07 $X=2010 $Y=-2930 $dt=0
M4 9 1 4 4 g45p1svt w=4.8e-07 l=4.5e-08 ad=6.72e-14 as=6.72e-14 pd=1.24e-06 ps=1.24e-06 sa=1.4e-07 sb=1.4e-07 sca=7.67703 scb=0.00492794 scc=0.000127123 fw=4.8e-07 $X=-2160 $Y=-450 $dt=1
M5 7 2 4 4 g45p1svt w=2.4e-07 l=4.5e-08 ad=3.36e-14 as=3.36e-14 pd=7.6e-07 ps=7.6e-07 sa=1.4e-07 sb=1.4e-07 sca=6.19868 scb=0.00224643 scc=1.06334e-05 fw=2.4e-07 $X=-2150 $Y=1560 $dt=1
M6 5 7 9 4 g45p1svt w=4.8e-07 l=4.5e-08 ad=6.72e-14 as=6.72e-14 pd=1.24e-06 ps=1.24e-06 sa=1.4e-07 sb=1.4e-07 sca=7.2888 scb=0.00480939 scc=0.000127096 fw=4.8e-07 $X=-740 $Y=-450 $dt=1
M7 10 8 4 4 g45p1svt w=4.8e-07 l=4.5e-08 ad=6.72e-14 as=6.72e-14 pd=1.24e-06 ps=1.24e-06 sa=1.4e-07 sb=1.4e-07 sca=7.2888 scb=0.00480939 scc=0.000127096 fw=4.8e-07 $X=640 $Y=-450 $dt=1
M8 8 1 4 4 g45p1svt w=2.4e-07 l=4.5e-08 ad=3.36e-14 as=3.36e-14 pd=7.6e-07 ps=7.6e-07 sa=1.4e-07 sb=1.4e-07 sca=5.82592 scb=0.00213462 scc=1.06087e-05 fw=2.4e-07 $X=1510 $Y=1560 $dt=1
M9 5 2 10 4 g45p1svt w=4.8e-07 l=4.5e-08 ad=6.72e-14 as=6.72e-14 pd=1.24e-06 ps=1.24e-06 sa=1.4e-07 sb=1.4e-07 sca=7.2888 scb=0.00480939 scc=0.000127096 fw=4.8e-07 $X=2010 $Y=-450 $dt=1
M10 11 8 4 4 g45p1svt w=4.8e-07 l=4.5e-08 ad=6.72e-14 as=6.72e-14 pd=1.24e-06 ps=1.24e-06 sa=1.4e-07 sb=1.4e-07 sca=7.78706 scb=0.00554847 scc=0.000178111 fw=4.8e-07 $X=3050 $Y=1480 $dt=1
.ends Half_Adder

* +++++++++++++++++++++++++++++++++++++++++++++++++++++++++ *
* Sub cell: Multiplier                                      *
* +++++++++++++++++++++++++++++++++++++++++++++++++++++++++ *
.subckt Multiplier 1 2 3 4 5 6 7 8 9 10
+ 11 12 13 14 15 16 17 18 19 20
+ 21 22 23 24 25 26 27 28 29 30
+ 31 32 33 34 35 36 37 38 39 40
+ 41 42 43 44 45 46 47 48 49 50
+ 51 52
** N=268 EP=52 FDC=472
X0 1 M2_M1_CDNS_1 $T=7650 -28760 0 0 $X=7570 $Y=-28890
X1 1 M2_M1_CDNS_1 $T=7650 -4390 0 0 $X=7570 $Y=-4520
X2 1 M2_M1_CDNS_1 $T=7650 19940 0 0 $X=7570 $Y=19810
X3 1 M2_M1_CDNS_1 $T=7650 26060 0 0 $X=7570 $Y=25930
X4 2 M2_M1_CDNS_1 $T=7950 -28360 0 0 $X=7870 $Y=-28490
X5 2 M2_M1_CDNS_1 $T=7950 -3990 0 0 $X=7870 $Y=-4120
X6 2 M2_M1_CDNS_1 $T=7950 20340 0 0 $X=7870 $Y=20210
X7 2 M2_M1_CDNS_1 $T=7950 26460 0 0 $X=7870 $Y=26330