* +++++++++++++++++++++++++++++++++++++++++++++++++++++++++ *
* CDL Netlist:                                              *
*                                                           *
* Cell Name  : XOR                                          *
* Netlisted  : Tue Apr  8 10:42:29 2025                     *
* Pegasus Version: 22.20-p009 Wed Jan 18 17:06:09 PST 2023  *
* +++++++++++++++++++++++++++++++++++++++++++++++++++++++++ *
*.LDD
*.DEVTMPLT 0 M(g45n1svt) _nmos1v ndiff_conn(D) poly_conn(G) ndiff_conn(S) psubstrate(B)
*.DEVTMPLT 1 M(g45p1svt) _pmos1v pdiff_conn(D) poly_conn(G) pdiff_conn(S) nwell_conn(B)

* +++++++++++++++++++++++++++++++++++++++++++++++++++++++++ *
* Sub cell: M2_M1_CDNS_1                                    *
* +++++++++++++++++++++++++++++++++++++++++++++++++++++++++ *
.subckt M2_M1_CDNS_1 1
** N=1 EP=1 FDC=0
.ends M2_M1_CDNS_1

* +++++++++++++++++++++++++++++++++++++++++++++++++++++++++ *
* Sub cell: M2_M1_CDNS_2                                    *
* +++++++++++++++++++++++++++++++++++++++++++++++++++++++++ *
.subckt M2_M1_CDNS_2 1
** N=1 EP=1 FDC=0
.ends M2_M1_CDNS_2

* +++++++++++++++++++++++++++++++++++++++++++++++++++++++++ *
* Sub cell: M1_PO_CDNS_3                                    *
* +++++++++++++++++++++++++++++++++++++++++++++++++++++++++ *
.subckt M1_PO_CDNS_3 1
** N=1 EP=1 FDC=0
.ends M1_PO_CDNS_3

* +++++++++++++++++++++++++++++++++++++++++++++++++++++++++ *
* Sub cell: M2_M1_CDNS_4                                    *
* +++++++++++++++++++++++++++++++++++++++++++++++++++++++++ *
.subckt M2_M1_CDNS_4 1
** N=1 EP=1 FDC=0
.ends M2_M1_CDNS_4

* +++++++++++++++++++++++++++++++++++++++++++++++++++++++++ *
* Sub cell: M1_PSUB_CDNS_6                                  *
* +++++++++++++++++++++++++++++++++++++++++++++++++++++++++ *
.subckt M1_PSUB_CDNS_6 1
** N=1 EP=1 FDC=0
.ends M1_PSUB_CDNS_6

* +++++++++++++++++++++++++++++++++++++++++++++++++++++++++ *
* Sub cell: pmos1v_CDNS_7                                   *
* +++++++++++++++++++++++++++++++++++++++++++++++++++++++++ *
.subckt pmos1v_CDNS_7 S_source_0 D_drain_1 3 4 5
*.DEVICECLIMB
** N=5 EP=5 FDC=0
.ends pmos1v_CDNS_7

* +++++++++++++++++++++++++++++++++++++++++++++++++++++++++ *
* Sub cell: nmos1v_CDNS_8                                   *
* +++++++++++++++++++++++++++++++++++++++++++++++++++++++++ *
.subckt nmos1v_CDNS_8 S_source_0 D_drain_1 3 4
*.DEVICECLIMB
** N=4 EP=4 FDC=0
.ends nmos1v_CDNS_8

* +++++++++++++++++++++++++++++++++++++++++++++++++++++++++ *
* Sub cell: nmos1v_CDNS_9                                   *
* +++++++++++++++++++++++++++++++++++++++++++++++++++++++++ *
.subckt nmos1v_CDNS_9 S_source_0 D_drain_1 3
*.DEVICECLIMB
** N=3 EP=3 FDC=0
.ends nmos1v_CDNS_9

* +++++++++++++++++++++++++++++++++++++++++++++++++++++++++ *
* Sub cell: pmos1v_CDNS_10                                  *
* +++++++++++++++++++++++++++++++++++++++++++++++++++++++++ *
.subckt pmos1v_CDNS_10 S_source_0 D_drain_1 3 4
*.DEVICECLIMB
** N=4 EP=4 FDC=0
.ends pmos1v_CDNS_10

* +++++++++++++++++++++++++++++++++++++++++++++++++++++++++ *
* Sub cell: XOR                                             *
* +++++++++++++++++++++++++++++++++++++++++++++++++++++++++ *
.subckt XOR A B GND VDD Y
** N=11 EP=5 FDC=12
X0 VDD M2_M1_CDNS_1 $T=-1770 3580 0 0 $X=-1850 $Y=3030
X1 Y M2_M1_CDNS_1 $T=60 3570 0 0 $X=-20 $Y=3020
X2 VDD M2_M1_CDNS_1 $T=1030 3570 0 0 $X=950 $Y=3020
X3 Y M2_M1_CDNS_1 $T=2810 3560 0 0 $X=2730 $Y=3010
X4 GND M2_M1_CDNS_2 $T=-1770 850 0 0 $X=-1850 $Y=580
X5 VDD M2_M1_CDNS_2 $T=-1760 5340 0 0 $X=-1840 $Y=5070
X6 GND M2_M1_CDNS_2 $T=-1760 6980 0 0 $X=-1840 $Y=6710
X7 4 M2_M1_CDNS_2 $T=-1350 5340 0 0 $X=-1430 $Y=5070
X8 4 M2_M1_CDNS_2 $T=-1350 6980 0 0 $X=-1430 $Y=6710
X9 Y M2_M1_CDNS_2 $T=60 850 0 0 $X=-20 $Y=580
X10 GND M2_M1_CDNS_2 $T=1030 850 0 0 $X=950 $Y=580
X11 VDD M2_M1_CDNS_2 $T=1900 5340 0 0 $X=1820 $Y=5070
X12 GND M2_M1_CDNS_2 $T=1900 6980 0 0 $X=1820 $Y=6710
X13 5 M2_M1_CDNS_2 $T=2310 5340 0 0 $X=2230 $Y=5070
X14 5 M2_M1_CDNS_2 $T=2310 6980 0 0 $X=2230 $Y=6710
X15 Y M2_M1_CDNS_2 $T=2810 850 0 0 $X=2730 $Y=580
X16 5 M1_PO_CDNS_3 $T=-1565 1720 0 0 $X=-1665 $Y=1600
X17 B M1_PO_CDNS_3 $T=-1565 2750 0 0 $X=-1665 $Y=2630
X18 A M1_PO_CDNS_3 $T=-1555 5900 0 0 $X=-1655 $Y=5780
X19 4 M1_PO_CDNS_3 $T=-145 5330 0 0 $X=-245 $Y=5210
X20 5 M1_PO_CDNS_3 $T=1235 2390 0 0 $X=1135 $Y=2270
X21 5 M1_PO_CDNS_3 $T=1235 5970 0 0 $X=1135 $Y=5850
X22 B M1_PO_CDNS_3 $T=1240 1420 0 0 $X=1140 $Y=1300
X23 B M1_PO_CDNS_3 $T=2100 6465 0 0 $X=2000 $Y=6345
X24 A M1_PO_CDNS_3 $T=2600 2035 0 0 $X=2500 $Y=1915
X25 B M2_M1_CDNS_4 $T=-2720 2750 0 0 $X=-2800 $Y=2620
X26 B M2_M1_CDNS_4 $T=-2720 6460 0 0 $X=-2800 $Y=6330
X27 A M2_M1_CDNS_4 $T=-2380 2040 0 0 $X=-2460 $Y=1910
X28 A M2_M1_CDNS_4 $T=-2380 5900 0 0 $X=-2460 $Y=5770
X29 GND M2_M1_CDNS_4 $T=-1770 60 0 0 $X=-1850 $Y=-70
X30 VDD M2_M1_CDNS_4 $T=-1760 4560 0 0 $X=-1840 $Y=4430
X31 GND M2_M1_CDNS_4 $T=-1760 7650 0 0 $X=-1840 $Y=7520
X32 B M2_M1_CDNS_4 $T=-850 1410 0 0 $X=-930 $Y=1280
X33 B M2_M1_CDNS_4 $T=-850 2740 0 0 $X=-930 $Y=2610
X34 Y M2_M1_CDNS_4 $T=60 2700 0 0 $X=-20 $Y=2570
X35 5 M2_M1_CDNS_4 $T=540 1730 0 0 $X=460 $Y=1600
X36 5 M2_M1_CDNS_4 $T=540 2380 0 0 $X=460 $Y=2250
X37 GND M2_M1_CDNS_4 $T=1030 50 0 0 $X=950 $Y=-80
X38 VDD M2_M1_CDNS_4 $T=1030 4570 0 0 $X=950 $Y=4440
X39 VDD M2_M1_CDNS_4 $T=1900 4560 0 0 $X=1820 $Y=4430
X40 GND M2_M1_CDNS_4 $T=1900 7650 0 0 $X=1820 $Y=7520
X41 5 M2_M1_CDNS_4 $T=2310 5970 0 0 $X=2230 $Y=5840
X42 Y M2_M1_CDNS_4 $T=2810 2700 0 0 $X=2730 $Y=2570
X43 GND M2_M1_CDNS_4 $T=3240 60 0 0 $X=3160 $Y=-70
X44 GND M2_M1_CDNS_4 $T=3240 7620 0 0 $X=3160 $Y=7490
X45 GND M1_PSUB_CDNS_6 $T=490 7650 0 0 $X=230 $Y=7370
X46 GND M1_PSUB_CDNS_6 $T=520 70 0 0 $X=260 $Y=-210
X47 VDD 8 B GND VDD pmos1v_CDNS_7 $T=-1610 3090 0 0 $X=-2030 $Y=2890
X48 8 Y 4 GND VDD pmos1v_CDNS_7 $T=-190 3090 0 0 $X=-610 $Y=2890
X49 VDD 9 5 GND VDD pmos1v_CDNS_7 $T=1190 3090 0 0 $X=770 $Y=2890
X50 9 Y A GND VDD pmos1v_CDNS_7 $T=2560 3090 0 0 $X=2140 $Y=2890
X51 GND 10 5 GND nmos1v_CDNS_8 $T=-1610 610 0 0 $X=-2030 $Y=410
X52 10 Y 4 GND nmos1v_CDNS_8 $T=-190 610 0 0 $X=-610 $Y=410
X53 GND 11 B GND nmos1v_CDNS_8 $T=1190 610 0 0 $X=770 $Y=410
X54 11 Y A GND nmos1v_CDNS_8 $T=2560 610 0 0 $X=2140 $Y=410
X55 GND 4 A nmos1v_CDNS_9 $T=-1600 6860 0 0 $X=-2020 $Y=6660
X56 GND 5 B nmos1v_CDNS_9 $T=2060 6860 0 0 $X=1640 $Y=6660
X57 VDD 4 A GND pmos1v_CDNS_10 $T=-1600 5100 0 0 $X=-2020 $Y=4900
X58 VDD 5 B GND pmos1v_CDNS_10 $T=2060 5100 0 0 $X=1640 $Y=4900
M0 10 5 GND GND g45n1svt w=2.4e-07 l=4.5e-08 ad=3.36e-14 as=3.36e-14 pd=7.6e-07 ps=7.6e-07 sa=1.4e-07 sb=1.4e-07 sca=6.69151 scb=0.00319921 scc=2.60024e-05 fw=2.4e-07 $X=-1610 $Y=610 $dt=0
M1 4 A GND GND g45n1svt w=1.2e-07 l=4.5e-08 ad=1.68e-14 as=1.68e-14 pd=5.2e-07 ps=5.2e-07 sa=1.4e-07 sb=1.4e-07 sca=7.51692 scb=0.00440555 scc=4.26654e-05 fw=1.2e-07 $X=-1600 $Y=6860 $dt=0
M2 Y 4 10 GND g45n1svt w=2.4e-07 l=4.5e-08 ad=3.36e-14 as=3.36e-14 pd=7.6e-07 ps=7.6e-07 sa=1.4e-07 sb=1.4e-07 sca=6.47267 scb=0.00314502 scc=2.59946e-05 fw=2.4e-07 $X=-190 $Y=610 $dt=0
M3 11 B GND GND g45n1svt w=2.4e-07 l=4.5e-08 ad=3.36e-14 as=3.36e-14 pd=7.6e-07 ps=7.6e-07 sa=1.4e-07 sb=1.4e-07 sca=6.47267 scb=0.00314502 scc=2.59946e-05 fw=2.4e-07 $X=1190 $Y=610 $dt=0
M4 5 B GND GND g45n1svt w=1.2e-07 l=4.5e-08 ad=1.68e-14 as=1.68e-14 pd=5.2e-07 ps=5.2e-07 sa=1.4e-07 sb=1.4e-07 sca=8.21929 scb=0.00480361 scc=4.29843e-05 fw=1.2e-07 $X=2060 $Y=6860 $dt=0
M5 Y A 11 GND g45n1svt w=2.4e-07 l=4.5e-08 ad=3.36e-14 as=3.36e-14 pd=7.6e-07 ps=7.6e-07 sa=1.4e-07 sb=1.4e-07 sca=9.82051 scb=0.00699966 scc=5.79164e-05 fw=2.4e-07 $X=2560 $Y=610 $dt=0
M6 8 B VDD VDD g45p1svt w=4.8e-07 l=4.5e-08 ad=6.72e-14 as=6.72e-14 pd=1.24e-06 ps=1.24e-06 sa=1.4e-07 sb=1.4e-07 sca=9.69279 scb=0.0076507 scc=0.000374491 fw=4.8e-07 $X=-1610 $Y=3090 $dt=1
M7 4 A VDD VDD g45p1svt w=2.4e-07 l=4.5e-08 ad=3.36e-14 as=3.36e-14 pd=7.6e-07 ps=7.6e-07 sa=1.4e-07 sb=1.4e-07 sca=34.3484 scb=0.025207 scc=0.0044195 fw=2.4e-07 $X=-1600 $Y=5100 $dt=1
M8 Y 4 8 VDD g45p1svt w=4.8e-07 l=4.5e-08 ad=6.72e-14 as=6.72e-14 pd=1.24e-06 ps=1.24e-06 sa=1.4e-07 sb=1.4e-07 sca=9.47395 scb=0.00759651 scc=0.000374483 fw=4.8e-07 $X=-190 $Y=3090 $dt=1
M9 9 5 VDD VDD g45p1svt w=4.8e-07 l=4.5e-08 ad=6.72e-14 as=6.72e-14 pd=1.24e-06 ps=1.24e-06 sa=1.4e-07 sb=1.4e-07 sca=9.47395 scb=0.00759651 scc=0.000374483 fw=4.8e-07 $X=1190 $Y=3090 $dt=1
M10 5 B VDD VDD g45p1svt w=2.4e-07 l=4.5e-08 ad=3.36e-14 as=3.36e-14 pd=7.6e-07 ps=7.6e-07 sa=1.4e-07 sb=1.4e-07 sca=35.0507 scb=0.0256051 scc=0.00441982 fw=2.4e-07 $X=2060 $Y=5100 $dt=1
M11 Y A 9 VDD g45p1svt w=4.8e-07 l=4.5e-08 ad=6.72e-14 as=6.72e-14 pd=1.24e-06 ps=1.24e-06 sa=1.4e-07 sb=1.4e-07 sca=12.8218 scb=0.0114511 scc=0.000406405 fw=4.8e-07 $X=2560 $Y=3090 $dt=1
.ends XOR
